<?xml version='1.0' encoding='UTF-8'?>
<!-- generated on 2026-01-18T20:05:34.294031+08:00 by Eclipse SUMO netconvert 1.25.0
<netconvertConfiguration xmlns:xsi="http://www.w3.org/2001/XMLSchema-instance" xsi:noNamespaceSchemaLocation="http://sumo.dlr.de/xsd/netconvertConfiguration.xsd">

    <input>
        <type-files value="/home/jiangchengxuan/CARLA_0.9.16/Co-Simulation/Sumo/util/data/opendrive_netconvert.typ.xml"/>
        <opendrive-files value="Town06_opt.xodr"/>
    </input>

    <output>
        <output-file value="/tmp/tmpaj7ynffm/Town06_opt.net.xml"/>
        <output.original-names value="true"/>
    </output>

    <processing>
        <geometry.remove value="true"/>
        <geometry.min-radius.fix value="true"/>
    </processing>

    <tls_building>
        <tls.discard-loaded value="true"/>
    </tls_building>

    <junctions>
        <no-turnarounds.except-deadend value="true"/>
    </junctions>

    <formats>
        <opendrive.import-all-lanes value="true"/>
        <opendrive.curve-resolution value="1"/>
    </formats>

</netconvertConfiguration>
-->
<net xmlns:xsi="http://www.w3.org/2001/XMLSchema-instance" version="1.20" junctionCornerDetail="5" rectangularLaneCut="true" limitTurnSpeed="5.50" xsi:noNamespaceSchemaLocation="http://sumo.dlr.de/xsd/net_file.xsd">
  <location netOffset="357.36,403.33" convBoundary="0.00,0.00,1013.80,545.84" origBoundary="0.000000,0.000000,0.000000,0.000000" projParameter="+proj=tmerc +lat_0=0 +lon_0=0 +k=1 +x_0=0 +y_0=0 +datum=WGS84 +units=m +geoidgrids=egm96_15.gtx +vunits=m +no_defs "/>
  <edge id=":1034_0" function="internal">
    <lane id=":1034_0_0" index="0" disallow="all" speed="1.39" length="44.66" width="0.63" shape="809.90,248.98 854.56,248.80">
      <param key="origId" value="1037_-9"/>
    </lane>
    <lane id=":1034_0_1" index="1" disallow="all" speed="1.39" length="44.66" width="0.50" shape="809.90,249.55 854.56,249.37">
      <param key="origId" value="1037_-8"/>
    </lane>
    <lane id=":1034_0_2" index="2" disallow="pedestrian tram rail_urban rail rail_electric rail_fast ship" speed="13.89" length="44.66" width="3.50" shape="809.91,251.55 854.57,251.37">
      <param key="origId" value="1037_-7"/>
    </lane>
    <lane id=":1034_0_3" index="3" disallow="pedestrian tram rail_urban rail rail_electric rail_fast ship" speed="13.89" length="44.66" width="3.50" shape="809.92,255.05 854.59,254.87">
      <param key="origId" value="1037_-6"/>
    </lane>
    <lane id=":1034_0_4" index="4" disallow="pedestrian tram rail_urban rail rail_electric rail_fast ship" speed="13.89" length="44.66" width="3.50" shape="809.94,258.55 854.60,258.37">
      <param key="origId" value="1037_-5"/>
    </lane>
    <lane id=":1034_0_5" index="5" disallow="pedestrian tram rail_urban rail rail_electric rail_fast ship" speed="13.89" length="44.66" width="3.50" shape="809.95,262.05 854.61,261.87">
      <param key="origId" value="1037_-4"/>
    </lane>
    <lane id=":1034_0_6" index="6" disallow="pedestrian tram rail_urban rail rail_electric rail_fast ship" speed="13.89" length="44.66" width="3.50" shape="809.97,265.55 854.63,265.37">
      <param key="origId" value="1037_-3"/>
    </lane>
  </edge>
  <edge id=":1034_7" function="internal">
    <lane id=":1034_7_0" index="0" disallow="pedestrian tram rail_urban rail rail_electric rail_fast ship" speed="13.89" length="42.71" width="3.50" shape="809.97,265.55 821.94,266.37 832.48,268.94 841.58,273.27 849.25,279.34">
      <param key="origId" value="1043_-3"/>
    </lane>
  </edge>
  <edge id=":1034_8" function="internal">
    <lane id=":1034_8_0" index="0" disallow="all" speed="1.39" length="44.66" width="0.50" shape="809.98,267.55 854.64,267.37">
      <param key="origId" value="1037_-2"/>
    </lane>
  </edge>
  <edge id=":1034_9" function="internal">
    <lane id=":1034_9_0" index="0" disallow="all" speed="1.39" length="41.13" width="0.50" shape="809.98,267.55 821.55,268.33 831.72,270.80 840.48,274.94 847.84,280.75">
      <param key="origId" value="1043_-2"/>
    </lane>
    <lane id=":1034_9_1" index="1" disallow="all" speed="1.39" length="40.68" width="0.63" shape="809.98,268.11 821.44,268.89 831.50,271.32 840.16,275.41 847.43,281.16">
      <param key="origId" value="1043_-1"/>
    </lane>
  </edge>
  <edge id=":1050_0" function="internal">
    <lane id=":1050_0_0" index="0" disallow="all" speed="1.39" length="30.03" width="0.63" shape="882.28,336.51 887.03,341.78 892.98,345.54 900.13,347.80 908.50,348.56">
      <param key="origId" value="1124_5"/>
    </lane>
    <lane id=":1050_0_1" index="1" disallow="all" speed="1.39" length="30.58" width="0.50" shape="881.82,336.83 886.65,342.21 892.71,346.05 899.99,348.35 908.50,349.13">
      <param key="origId" value="1124_4"/>
    </lane>
    <lane id=":1050_0_2" index="2" disallow="pedestrian tram rail_urban rail rail_electric rail_fast ship" speed="13.89" length="32.52" width="3.50" shape="880.17,337.97 885.33,343.72 891.77,347.83 899.49,350.30 908.50,351.13">
      <param key="origId" value="1124_3"/>
    </lane>
  </edge>
  <edge id=":1050_3" function="internal">
    <lane id=":1050_3_0" index="0" disallow="all" speed="1.39" length="70.79" width="0.50" shape="837.71,349.09 908.50,349.13">
      <param key="origId" value="1083_-8"/>
    </lane>
    <lane id=":1050_3_1" index="1" disallow="pedestrian tram rail_urban rail rail_electric rail_fast ship" speed="13.89" length="70.79" width="3.50" shape="837.71,351.09 908.50,351.13">
      <param key="origId" value="1083_-7"/>
    </lane>
    <lane id=":1050_3_2" index="2" disallow="pedestrian tram rail_urban rail rail_electric rail_fast ship" speed="13.89" length="70.79" width="3.50" shape="837.71,354.59 908.50,354.63">
      <param key="origId" value="1083_-6"/>
    </lane>
    <lane id=":1050_3_3" index="3" disallow="pedestrian tram rail_urban rail rail_electric rail_fast ship" speed="13.89" length="70.79" width="3.50" shape="837.70,358.09 908.49,358.13">
      <param key="origId" value="1083_-5"/>
    </lane>
    <lane id=":1050_3_4" index="4" disallow="pedestrian tram rail_urban rail rail_electric rail_fast ship" speed="13.89" length="70.79" width="3.50" shape="837.70,361.59 908.49,361.63">
      <param key="origId" value="1083_-4"/>
    </lane>
    <lane id=":1050_3_5" index="5" disallow="pedestrian tram rail_urban rail rail_electric rail_fast ship" speed="13.89" length="70.79" width="3.50" shape="837.70,365.09 908.49,365.13">
      <param key="origId" value="1083_-3"/>
    </lane>
  </edge>
  <edge id=":1050_9" function="internal">
    <lane id=":1050_9_0" index="0" disallow="pedestrian tram rail_urban rail rail_electric rail_fast ship" speed="13.89" length="37.62" width="3.50" shape="837.70,365.09 847.87,365.95 856.90,368.54 864.77,372.86 871.50,378.90">
      <param key="origId" value="1051_-1"/>
    </lane>
  </edge>
  <edge id=":1050_10" function="internal">
    <lane id=":1050_10_0" index="0" disallow="all" speed="1.39" length="70.79" width="0.50" shape="837.70,367.09 908.49,367.13">
      <param key="origId" value="1083_-2"/>
    </lane>
  </edge>
  <edge id=":1050_11" function="internal">
    <lane id=":1050_11_0" index="0" disallow="all" speed="1.39" length="35.46" width="0.63" shape="837.70,367.65 847.32,368.47 855.84,370.90 863.26,374.94 869.59,380.61">
      <param key="origId" value="1052_-1"/>
    </lane>
  </edge>
  <edge id=":1128_0" function="internal">
    <lane id=":1128_0_0" index="0" disallow="all" speed="1.39" length="42.10" width="0.63" shape="274.62,270.45 232.52,270.55">
      <param key="origId" value="1129_7"/>
    </lane>
    <lane id=":1128_0_1" index="1" disallow="all" speed="1.39" length="42.10" width="0.50" shape="274.62,269.88 232.51,269.98">
      <param key="origId" value="1129_6"/>
    </lane>
    <lane id=":1128_0_2" index="2" disallow="pedestrian tram rail_urban rail rail_electric rail_fast ship" speed="13.89" length="42.10" width="3.50" shape="274.61,267.88 232.51,267.98">
      <param key="origId" value="1129_5"/>
    </lane>
    <lane id=":1128_0_3" index="3" disallow="pedestrian tram rail_urban rail rail_electric rail_fast ship" speed="13.89" length="42.10" width="3.50" shape="274.61,264.38 232.50,264.48">
      <param key="origId" value="1129_4"/>
    </lane>
    <lane id=":1128_0_4" index="4" disallow="pedestrian tram rail_urban rail rail_electric rail_fast ship" speed="13.89" length="42.10" width="3.50" shape="274.60,260.88 232.49,260.98">
      <param key="origId" value="1129_3"/>
    </lane>
    <lane id=":1128_0_5" index="5" disallow="pedestrian tram rail_urban rail rail_electric rail_fast ship" speed="13.89" length="42.10" width="3.50" shape="274.59,257.38 232.48,257.48">
      <param key="origId" value="1129_2"/>
    </lane>
  </edge>
  <edge id=":1128_6" function="internal">
    <lane id=":1128_6_0" index="0" disallow="pedestrian tram rail_urban rail rail_electric rail_fast ship" speed="13.89" length="39.14" width="3.50" shape="269.74,243.15 260.36,250.08 252.80,253.21 244.39,254.02 232.48,253.98">
      <param key="origId" value="1139_3"/>
    </lane>
    <lane id=":1128_6_1" index="1" disallow="all" speed="1.39" length="39.14" width="0.50" shape="268.46,241.61 259.40,248.28 252.09,251.28 243.97,252.03 232.47,251.98">
      <param key="origId" value="1139_2"/>
    </lane>
    <lane id=":1128_6_2" index="2" disallow="all" speed="1.39" length="39.14" width="0.63" shape="268.09,241.17 259.13,247.77 251.89,250.73 243.85,251.47 232.47,251.42">
      <param key="origId" value="1139_1"/>
    </lane>
  </edge>
  <edge id=":1146_0" function="internal">
    <lane id=":1146_0_0" index="0" disallow="all" speed="1.39" length="69.20" width="0.63" shape="544.33,236.12 558.94,243.73 572.74,247.86 588.86,249.54 610.41,249.80">
      <param key="origId" value="1159_5"/>
    </lane>
    <lane id=":1146_0_1" index="1" disallow="all" speed="1.39" length="69.20" width="0.50" shape="544.04,236.61 558.67,244.23 572.54,248.39 588.75,250.09 610.41,250.37">
      <param key="origId" value="1159_4"/>
    </lane>
    <lane id=":1146_0_2" index="2" disallow="pedestrian tram rail_urban rail rail_electric rail_fast ship" speed="13.89" length="69.20" width="3.50" shape="543.00,238.32 557.72,245.99 571.82,250.25 588.37,252.05 610.42,252.37">
      <param key="origId" value="1159_3"/>
    </lane>
  </edge>
  <edge id=":1146_3" function="internal">
    <lane id=":1146_3_0" index="0" disallow="all" speed="1.39" length="71.30" width="0.50" shape="539.11,250.66 610.41,250.37">
      <param key="origId" value="1149_-8"/>
    </lane>
    <lane id=":1146_3_1" index="1" disallow="pedestrian tram rail_urban rail rail_electric rail_fast ship" speed="13.89" length="71.30" width="3.50" shape="539.12,252.66 610.42,252.37">
      <param key="origId" value="1149_-7"/>
    </lane>
    <lane id=":1146_3_2" index="2" disallow="pedestrian tram rail_urban rail rail_electric rail_fast ship" speed="13.89" length="71.30" width="3.50" shape="539.14,256.16 610.43,255.87">
      <param key="origId" value="1149_-6"/>
    </lane>
    <lane id=":1146_3_3" index="3" disallow="pedestrian tram rail_urban rail rail_electric rail_fast ship" speed="13.89" length="71.30" width="3.50" shape="539.15,259.66 610.45,259.37">
      <param key="origId" value="1149_-5"/>
    </lane>
    <lane id=":1146_3_4" index="4" disallow="pedestrian tram rail_urban rail rail_electric rail_fast ship" speed="13.89" length="71.30" width="3.50" shape="539.16,263.16 610.46,262.87">
      <param key="origId" value="1149_-4"/>
    </lane>
    <lane id=":1146_3_5" index="5" disallow="pedestrian tram rail_urban rail rail_electric rail_fast ship" speed="13.89" length="71.30" width="3.50" shape="539.18,266.66 610.48,266.37">
      <param key="origId" value="1149_-3"/>
    </lane>
    <lane id=":1146_3_6" index="6" disallow="all" speed="1.39" length="71.30" width="0.50" shape="539.19,268.66 610.49,268.37">
      <param key="origId" value="1149_-2"/>
    </lane>
    <lane id=":1146_3_7" index="7" disallow="all" speed="1.39" length="71.30" width="0.63" shape="539.19,269.22 610.49,268.93">
      <param key="origId" value="1149_-1"/>
    </lane>
  </edge>
  <edge id=":1162_0" function="internal">
    <lane id=":1162_0_0" index="0" disallow="all" speed="1.39" length="29.23" width="0.63" shape="511.77,429.39 482.54,429.29">
      <param key="origId" value="1164_-8"/>
    </lane>
    <lane id=":1162_0_1" index="1" disallow="all" speed="1.39" length="29.23" width="0.50" shape="511.77,428.82 482.54,428.72">
      <param key="origId" value="1164_-7"/>
    </lane>
    <lane id=":1162_0_2" index="2" disallow="pedestrian tram rail_urban rail rail_electric rail_fast ship" speed="13.89" length="29.23" width="3.50" shape="511.78,426.82 482.55,426.72">
      <param key="origId" value="1164_-6"/>
      <param key="signalID" value="1238"/>
    </lane>
    <lane id=":1162_0_3" index="3" disallow="pedestrian tram rail_urban rail rail_electric rail_fast ship" speed="13.89" length="29.23" width="3.50" shape="511.79,423.32 482.56,423.22">
      <param key="origId" value="1164_-5"/>
      <param key="signalID" value="1238"/>
    </lane>
    <lane id=":1162_0_4" index="4" disallow="pedestrian tram rail_urban rail rail_electric rail_fast ship" speed="13.89" length="29.23" width="3.50" shape="511.81,419.82 482.58,419.72">
      <param key="origId" value="1164_-4"/>
      <param key="signalID" value="1238"/>
    </lane>
    <lane id=":1162_0_5" index="5" disallow="pedestrian tram rail_urban rail rail_electric rail_fast ship" speed="13.89" length="29.23" width="3.50" shape="511.82,416.32 482.59,416.22">
      <param key="origId" value="1164_-3"/>
      <param key="signalID" value="1238"/>
    </lane>
    <lane id=":1162_0_6" index="6" disallow="all" speed="1.39" length="29.23" width="0.50" shape="511.83,414.32 482.60,414.22">
      <param key="origId" value="1164_-2"/>
    </lane>
  </edge>
  <edge id=":1162_7" function="internal">
    <lane id=":1162_7_0" index="0" disallow="pedestrian tram rail_urban rail rail_electric rail_fast ship" speed="13.33" length="35.99" width="3.50" shape="502.07,399.92 499.14,411.67 494.91,420.05 489.38,425.07 482.55,426.72">
      <param key="origId" value="1175_1"/>
      <param key="signalID" value="1239 1238 1239"/>
    </lane>
    <lane id=":1162_7_1" index="1" disallow="pedestrian tram rail_urban rail rail_electric rail_fast ship" speed="12.83" length="33.25" width="3.50" shape="502.07,399.92 499.37,410.14 495.21,417.43 489.61,421.79 482.56,423.22">
      <param key="origId" value="1176_1"/>
      <param key="signalID" value="1239 1238 1239"/>
    </lane>
    <lane id=":1162_7_2" index="2" disallow="pedestrian tram rail_urban rail rail_electric rail_fast ship" speed="12.32" length="30.59" width="3.50" shape="502.07,399.92 499.59,408.61 495.51,414.80 489.84,418.51 482.58,419.72">
      <param key="origId" value="1180_4"/>
      <param key="signalID" value="1239 1238 1239"/>
    </lane>
    <lane id=":1162_7_3" index="3" disallow="pedestrian tram rail_urban rail rail_electric rail_fast ship" speed="11.31" length="25.61" width="3.50" shape="498.62,399.33 496.54,406.74 493.17,412.03 488.52,415.19 482.59,416.22">
      <param key="origId" value="1180_3"/>
      <param key="signalID" value="1239 1238 1239"/>
    </lane>
    <lane id=":1162_7_4" index="4" disallow="all" speed="1.39" length="22.76" width="0.50" shape="496.65,399.00 494.80,405.68 491.84,410.44 487.77,413.29 482.60,414.22">
      <param key="origId" value="1180_2"/>
      <param key="signalID" value="1239 1238"/>
    </lane>
    <lane id=":1162_7_5" index="5" disallow="all" speed="1.39" length="21.96" width="0.63" shape="496.09,398.90 494.31,405.37 491.46,409.99 487.56,412.75 482.60,413.66">
      <param key="origId" value="1180_1"/>
      <param key="signalID" value="1239 1238 1239 1239"/>
    </lane>
  </edge>
  <edge id=":1187_0" function="internal">
    <lane id=":1187_0_0" index="0" disallow="all" speed="1.39" length="55.65" width="0.63" shape="430.22,149.21 485.87,149.19">
      <param key="origId" value="1190_-9"/>
    </lane>
    <lane id=":1187_0_1" index="1" disallow="all" speed="1.39" length="55.65" width="0.50" shape="430.22,149.78 485.87,149.76">
      <param key="origId" value="1190_-8"/>
    </lane>
    <lane id=":1187_0_2" index="2" disallow="pedestrian tram rail_urban rail rail_electric rail_fast ship" speed="13.89" length="55.65" width="3.50" shape="430.22,151.78 485.87,151.76">
      <param key="origId" value="1190_-7"/>
    </lane>
    <lane id=":1187_0_3" index="3" disallow="pedestrian tram rail_urban rail rail_electric rail_fast ship" speed="13.89" length="55.65" width="3.50" shape="430.22,155.28 485.88,155.26">
      <param key="origId" value="1190_-6"/>
    </lane>
    <lane id=":1187_0_4" index="4" disallow="pedestrian tram rail_urban rail rail_electric rail_fast ship" speed="13.89" length="55.65" width="3.50" shape="430.23,158.78 485.88,158.76">
      <param key="origId" value="1190_-5"/>
    </lane>
    <lane id=":1187_0_5" index="5" disallow="pedestrian tram rail_urban rail rail_electric rail_fast ship" speed="13.89" length="55.65" width="3.50" shape="430.23,162.28 485.88,162.26">
      <param key="origId" value="1190_-4"/>
    </lane>
    <lane id=":1187_0_6" index="6" disallow="pedestrian tram rail_urban rail rail_electric rail_fast ship" speed="13.89" length="55.65" width="3.50" shape="430.23,165.78 485.88,165.76">
      <param key="origId" value="1190_-3"/>
    </lane>
  </edge>
  <edge id=":1187_7" function="internal">
    <lane id=":1187_7_0" index="0" disallow="pedestrian tram rail_urban rail rail_electric rail_fast ship" speed="13.89" length="54.49" width="3.50" shape="430.23,165.78 446.54,165.94 458.10,167.40 468.51,171.58 481.35,179.91">
      <param key="origId" value="1196_-3"/>
    </lane>
  </edge>
  <edge id=":1187_8" function="internal">
    <lane id=":1187_8_0" index="0" disallow="all" speed="1.39" length="55.65" width="0.50" shape="430.23,167.78 485.88,167.76">
      <param key="origId" value="1190_-2"/>
    </lane>
  </edge>
  <edge id=":1187_9" function="internal">
    <lane id=":1187_9_0" index="0" disallow="all" speed="1.39" length="53.27" width="0.50" shape="430.23,167.78 446.11,167.88 457.29,169.21 467.44,173.27 480.19,181.54">
      <param key="origId" value="1196_-2"/>
    </lane>
    <lane id=":1187_9_1" index="1" disallow="all" speed="1.39" length="52.92" width="0.63" shape="430.23,168.34 445.98,168.43 457.06,169.73 467.14,173.75 479.86,182.00">
      <param key="origId" value="1196_-1"/>
    </lane>
  </edge>
  <edge id=":1203_0" function="internal">
    <lane id=":1203_0_0" index="0" disallow="all" speed="1.39" length="35.78" width="0.63" shape="884.96,430.28 849.18,430.36">
      <param key="origId" value="1206_-9"/>
    </lane>
    <lane id=":1203_0_1" index="1" disallow="all" speed="1.39" length="35.78" width="0.50" shape="884.96,429.71 849.18,429.79">
      <param key="origId" value="1206_-8"/>
    </lane>
    <lane id=":1203_0_2" index="2" disallow="pedestrian tram rail_urban rail rail_electric rail_fast ship" speed="13.89" length="35.78" width="3.50" shape="884.95,427.71 849.18,427.79">
      <param key="origId" value="1206_-7"/>
    </lane>
    <lane id=":1203_0_3" index="3" disallow="pedestrian tram rail_urban rail rail_electric rail_fast ship" speed="13.89" length="35.78" width="3.50" shape="884.95,424.21 849.17,424.29">
      <param key="origId" value="1206_-6"/>
    </lane>
    <lane id=":1203_0_4" index="4" disallow="pedestrian tram rail_urban rail rail_electric rail_fast ship" speed="13.89" length="35.78" width="3.50" shape="884.94,420.71 849.16,420.79">
      <param key="origId" value="1206_-5"/>
    </lane>
    <lane id=":1203_0_5" index="5" disallow="pedestrian tram rail_urban rail rail_electric rail_fast ship" speed="13.89" length="35.78" width="3.50" shape="884.93,417.21 849.15,417.29">
      <param key="origId" value="1206_-4"/>
    </lane>
    <lane id=":1203_0_6" index="6" disallow="pedestrian tram rail_urban rail rail_electric rail_fast ship" speed="13.89" length="35.78" width="3.50" shape="884.93,413.71 849.15,413.79">
      <param key="origId" value="1206_-3"/>
    </lane>
    <lane id=":1203_0_7" index="7" disallow="all" speed="1.39" length="35.78" width="0.50" shape="884.92,411.71 849.14,411.79">
      <param key="origId" value="1206_-2"/>
    </lane>
  </edge>
  <edge id=":1203_8" function="internal">
    <lane id=":1203_8_0" index="0" disallow="pedestrian tram rail_urban rail rail_electric rail_fast ship" speed="13.88" length="32.82" width="3.50" shape="876.24,402.80 872.60,409.12 866.87,413.65 859.05,416.37 849.15,417.29">
      <param key="origId" value="1216_1"/>
    </lane>
    <lane id=":1203_8_1" index="1" disallow="pedestrian tram rail_urban rail rail_electric rail_fast ship" speed="13.49" length="30.93" width="3.50" shape="876.24,402.80 873.07,407.59 867.50,411.02 859.52,413.09 849.15,413.79">
      <param key="origId" value="1218_3"/>
    </lane>
    <lane id=":1203_8_2" index="2" disallow="all" speed="1.39" length="28.50" width="0.50" shape="874.36,402.12 871.48,406.34 866.32,409.35 858.87,411.17 849.14,411.79">
      <param key="origId" value="1218_2"/>
    </lane>
    <lane id=":1203_8_3" index="3" disallow="all" speed="1.39" length="27.81" width="0.63" shape="873.83,401.93 871.03,405.98 865.98,408.88 858.69,410.63 849.14,411.23">
      <param key="origId" value="1218_1"/>
    </lane>
  </edge>
  <edge id=":15#1_0" function="internal">
    <lane id=":15#1_0_0" index="0" disallow="all" speed="1.39" length="3.65" width="0.63" shape="400.04,348.48 403.30,346.31"/>
    <lane id=":15#1_0_1" index="1" disallow="all" speed="1.39" length="3.65" width="0.50" shape="399.97,349.05 403.24,346.87"/>
    <lane id=":15#1_0_2" index="2" disallow="pedestrian tram rail_urban rail rail_electric rail_fast ship" speed="13.89" length="3.65" width="3.50" shape="399.75,351.03 403.01,348.86"/>
    <lane id=":15#1_0_3" index="3" disallow="pedestrian tram rail_urban rail rail_electric rail_fast ship" speed="13.89" length="3.65" width="3.50" shape="399.35,354.51 402.62,352.34"/>
    <lane id=":15#1_0_4" index="4" disallow="pedestrian tram rail_urban rail rail_electric rail_fast ship" speed="13.89" length="3.65" width="3.50" shape="398.96,357.99 402.22,355.82"/>
    <lane id=":15#1_0_5" index="5" disallow="pedestrian tram rail_urban rail rail_electric rail_fast ship" speed="13.89" length="3.65" width="3.50" shape="398.56,361.47 401.83,359.30"/>
    <lane id=":15#1_0_6" index="6" allow="emergency authority" speed="13.89" length="3.65" width="4.18" shape="398.27,364.03 399.21,363.94 399.83,363.57 400.45,363.20 401.39,363.11"/>
    <lane id=":15#1_0_7" index="7" disallow="all" speed="1.39" length="3.65" width="0.50" shape="398.15,365.10 401.13,365.44"/>
    <lane id=":15#1_0_8" index="8" disallow="all" speed="1.39" length="3.65" width="0.63" shape="398.08,365.67 401.07,366.00"/>
  </edge>
  <edge id=":15.14_0" function="internal">
    <lane id=":15.14_0_0" index="0" disallow="all" speed="1.39" length="7.57" width="0.63" shape="380.43,348.38 382.93,348.14 384.62,347.62 386.31,347.19 388.80,347.21"/>
    <lane id=":15.14_0_1" index="1" disallow="all" speed="1.39" length="7.57" width="0.50" shape="380.43,348.95 382.91,348.70 384.59,348.19 386.27,347.76 388.73,347.77"/>
    <lane id=":15.14_0_2" index="2" disallow="pedestrian tram rail_urban rail rail_electric rail_fast ship" speed="13.89" length="7.57" width="3.50" shape="380.43,350.95 382.84,350.70 384.48,350.18 386.11,349.75 388.51,349.76"/>
    <lane id=":15.14_0_3" index="3" disallow="pedestrian tram rail_urban rail rail_electric rail_fast ship" speed="13.89" length="7.57" width="3.50" shape="380.42,354.45 382.72,354.20 384.28,353.68 385.83,353.24 388.11,353.24"/>
    <lane id=":15.14_0_4" index="4" disallow="pedestrian tram rail_urban rail rail_electric rail_fast ship" speed="13.89" length="7.57" width="3.50" shape="380.42,357.95 382.61,357.70 384.08,357.18 385.55,356.73 387.72,356.71"/>
    <lane id=":15.14_0_5" index="5" disallow="pedestrian tram rail_urban rail rail_electric rail_fast ship" speed="13.89" length="7.57" width="3.50" shape="380.42,361.45 382.49,361.20 383.88,360.67 385.27,360.22 387.32,360.19"/>
    <lane id=":15.14_0_6" index="6" disallow="all" speed="1.39" length="7.57" width="0.50" shape="380.42,363.45 382.35,363.46 383.67,363.50 384.99,363.61 386.91,363.83"/>
    <lane id=":15.14_0_7" index="7" disallow="all" speed="1.39" length="7.57" width="0.63" shape="380.41,364.02 382.33,364.03 383.64,364.07 384.94,364.18 386.85,364.39"/>
  </edge>
  <edge id=":22#1_0" function="internal">
    <lane id=":22#1_0_0" index="0" disallow="all" speed="1.39" length="3.38" width="0.63" shape="309.69,270.47 308.72,270.65 308.13,271.19 307.53,271.72 306.56,271.90"/>
    <lane id=":22#1_0_1" index="1" disallow="all" speed="1.39" length="3.38" width="0.50" shape="309.74,269.90 308.77,270.08 308.17,270.62 307.58,271.16 306.61,271.34"/>
    <lane id=":22#1_0_2" index="2" disallow="pedestrian tram rail_urban rail rail_electric rail_fast ship" speed="13.89" length="3.38" width="3.50" shape="309.92,267.91 308.94,268.09 308.35,268.63 307.75,269.16 306.78,269.34"/>
    <lane id=":22#1_0_3" index="3" disallow="pedestrian tram rail_urban rail rail_electric rail_fast ship" speed="13.89" length="3.38" width="3.50" shape="310.22,264.42 309.24,264.60 308.65,265.14 308.05,265.68 307.08,265.86"/>
    <lane id=":22#1_0_4" index="4" disallow="pedestrian tram rail_urban rail rail_electric rail_fast ship" speed="13.89" length="3.38" width="3.50" shape="310.52,260.93 309.55,261.12 308.95,261.65 308.36,262.19 307.38,262.37"/>
    <lane id=":22#1_0_5" index="5" allow="emergency authority" speed="13.89" length="3.38" width="3.50" shape="310.75,258.30 309.83,258.35 309.22,258.59 308.60,258.83 307.69,258.88"/>
    <lane id=":22#1_0_6" index="6" disallow="all" speed="1.39" length="3.38" width="0.50" shape="310.85,257.15 307.86,256.89"/>
    <lane id=":22#1_0_7" index="7" disallow="all" speed="1.39" length="3.38" width="0.63" shape="310.90,256.59 307.91,256.33"/>
  </edge>
  <edge id=":23.22_0" function="internal">
    <lane id=":23.22_0_0" index="0" disallow="all" speed="1.39" length="7.82" width="0.63" shape="332.94,270.32 330.47,270.60 328.81,271.18 327.15,271.69 324.69,271.76"/>
    <lane id=":23.22_0_1" index="1" disallow="all" speed="1.39" length="7.82" width="0.50" shape="332.94,269.75 330.48,270.03 328.83,270.61 327.18,271.12 324.74,271.20"/>
    <lane id=":23.22_0_2" index="2" disallow="pedestrian tram rail_urban rail rail_electric rail_fast ship" speed="13.89" length="7.82" width="3.50" shape="332.93,267.75 330.53,268.03 328.92,268.61 327.30,269.13 324.91,269.21"/>
    <lane id=":23.22_0_3" index="3" disallow="pedestrian tram rail_urban rail rail_electric rail_fast ship" speed="13.89" length="7.82" width="3.50" shape="332.93,264.25 330.62,264.53 329.06,265.11 327.52,265.63 325.21,265.72"/>
    <lane id=":23.22_0_4" index="4" disallow="pedestrian tram rail_urban rail rail_electric rail_fast ship" speed="13.89" length="7.82" width="3.50" shape="332.92,260.75 330.70,261.03 329.21,261.62 327.73,262.14 325.51,262.23"/>
    <lane id=":23.22_0_5" index="5" disallow="all" speed="1.39" length="7.82" width="0.50" shape="332.92,258.75 330.81,258.75 329.37,258.72 327.94,258.62 325.84,258.45"/>
    <lane id=":23.22_0_6" index="6" disallow="all" speed="1.39" length="7.82" width="0.63" shape="332.92,258.18 330.83,258.18 329.40,258.15 327.97,258.06 325.89,257.88"/>
  </edge>
  <edge id=":268_0" function="internal">
    <lane id=":268_0_0" index="0" disallow="all" speed="1.39" length="41.32" width="0.63" shape="1032.82,337.85 1032.70,350.79 1031.99,359.66 1030.14,368.36 1026.62,380.82">
      <param key="origId" value="269_9"/>
      <param key="signalID" value="1223"/>
    </lane>
    <lane id=":268_0_1" index="1" disallow="all" speed="1.39" length="41.32" width="0.50" shape="1032.26,337.85 1032.14,350.74 1031.42,359.58 1029.58,368.25 1026.07,380.67">
      <param key="origId" value="269_8"/>
      <param key="signalID" value="1223"/>
    </lane>
    <lane id=":268_0_2" index="2" disallow="pedestrian tram rail_urban rail rail_electric rail_fast ship" speed="13.89" length="41.32" width="3.50" shape="1030.26,337.85 1030.14,350.58 1029.43,359.30 1027.61,367.86 1024.15,380.11">
      <param key="origId" value="269_7"/>
      <param key="signalID" value="1223 1224"/>
    </lane>
    <lane id=":268_0_3" index="3" disallow="pedestrian tram rail_urban rail rail_electric rail_fast ship" speed="13.89" length="41.32" width="3.50" shape="1026.76,337.85 1026.64,350.28 1025.95,358.80 1024.17,367.17 1020.79,379.14">
      <param key="origId" value="269_6"/>
      <param key="signalID" value="1223 1224"/>
    </lane>
    <lane id=":268_0_4" index="4" disallow="pedestrian tram rail_urban rail rail_electric rail_fast ship" speed="13.89" length="41.32" width="3.50" shape="1023.25,337.85 1023.14,349.99 1022.46,358.31 1020.73,366.48 1017.43,378.17">
      <param key="origId" value="269_5"/>
      <param key="signalID" value="1223 1224"/>
    </lane>
    <lane id=":268_0_5" index="5" disallow="pedestrian tram rail_urban rail rail_electric rail_fast ship" speed="13.89" length="41.32" width="3.50" shape="1019.75,337.85 1019.64,349.70 1018.98,357.82 1017.28,365.79 1014.06,377.19">
      <param key="origId" value="269_4"/>
      <param key="signalID" value="1223 1224"/>
    </lane>
    <lane id=":268_0_6" index="6" disallow="pedestrian tram rail_urban rail rail_electric rail_fast ship" speed="13.89" length="41.32" width="3.50" shape="1016.25,337.85 1016.14,349.41 1015.50,357.32 1013.84,365.10 1010.70,376.22">
      <param key="origId" value="269_3"/>
      <param key="signalID" value="1223 1224"/>
    </lane>
    <lane id=":268_0_7" index="7" disallow="all" speed="1.39" length="41.32" width="0.50" shape="1014.25,337.85 1014.15,349.24 1013.51,357.04 1011.87,364.70 1008.78,375.67">
      <param key="origId" value="269_2"/>
      <param key="signalID" value="1223"/>